CM 
CE
GW	1	10	-0.125	0	0	0.125	0	0	0.001
GW	2	10	0.375	0	0	0.625	0	0	0.001
GW	3	10	0.875	0	0	1.125	0	0	0.001
GW	4	10	1.375	0	0	1.625	0	0	0.001
GW	5	10	-0.125	0.5	0	0.125	0.5	0	0.001
GW	6	10	0.375	0.5	0	0.625	0.5	0	0.001
GW	7	10	0.875	0.5	0	1.125	0.5	0	0.001
GW	8	10	1.375	0.5	0	1.625	0.5	0	0.001
GW	9	10	-0.125	1	0	0.125	1	0	0.001
GW	10	10	0.375	1	0	0.625	1	0	0.001
GW	11	10	0.875	1	0	1.125	1	0	0.001
GW	12	10	1.375	1	0	1.625	1	0	0.001
GW	13	10	-0.125	1.5	0	0.125	1.5	0	0.001
GW	14	10	0.375	1.5	0	0.625	1.5	0	0.001
GW	15	10	0.875	1.5	0	1.125	1.5	0	0.001
GW	16	10	1.375	1.5	0	1.625	1.5	0	0.001
GE	0
GN	-1
EK
EX	0	1	50%	0	1	0	0
EX	0	2	50%	0	1	0	0
EX	0	3	50%	0	1	0	0
EX	0	4	50%	0	1	0	0
EX	0	5	50%	0	6.12e-17	-1	0	0
EX	0	6	50%	0	6.12e-17	-1	0	0
EX	0	7	50%	0	6.12e-17	-1	0	0
EX	0	8	50%	0	6.12e-17	-1	0	0
EX	0	9	50%	0	-1	-1.2e-16	0	0
EX	0	10	50%	0	-1	-1.2e-16	0	0
EX	0	11	50%	0	-1	-1.2e-16	0	0
EX	0	12	50%	0	-1	-1.2e-16	0	0
EX	0	13	50%	0	-1.8e-16	1	0	0
EX	0	14	50%	0	-1.8e-16	1	0	0
EX	0	15	50%	0	-1.8e-16	1	0	0
EX	0	16	50%	0	-1.8e-16	1	0	0
FR	0	0	0	0	299.8	0
EN
