CM 
CE
GW	1	19	0	0	-0.125	0	0	0.125	0.001
GW	2	19	0	0	0.375	0	0	0.625	0.001
GW	3	19	0	0	0.875	0	0	1.125	0.001
GW	4	19	0	0	1.375	0	0	1.625	0.001
GW	5	19	0	0	1.875	0	0	2.125	0.001
GW	6	19	0	0	2.375	0	0	2.625	0.001
GW	7	19	0	0	2.875	0	0	3.125	0.001
GW	8	19	0	0	3.375	0	0	3.625	0.001
GW	9	19	0	0	3.875	0	0	4.125	0.001
GW	10	19	0	0	4.375	0	0	4.625	0.001
GE	0
GN	-1
EK
EX	0	1	50%	0	1	0	0
EX	0	2	50%	0	1	0	0
EX	0	3	50%	0	1	0	0
EX	0	4	50%	0	1	0	0
EX	0	5	50%	0	1	0	0
EX	0	6	50%	0	1	0	0
EX	0	7	50%	0	1	0	0
EX	0	8	50%	0	1	0	0
EX	0	9	50%	0	1	0	0
EX	0	10	50%	0	1	0	0
FR	0	0	0	0	299.8	0
EN
