CM 
CE
GW	1	19	0	0	0	0	0	0.25	0.001
GW	2	19	0	0	0.75	0	0	1.00	0.001
GW	3	19	0	0	1.5	0	0	1.75	0.001
GW	4	19	0	0	2.25	0	0	2.5	0.001
GW	5	19	0	0	3.0	0	0	3.25	0.001
GE	0
GN	-1
EK
EX	0	1	50%	0	1	0	0
EX	0	2	50%	0	4	0	0
EX	0	3	50%	0	6	0	0
EX	0	4	50%	0	4	0	0
EX	0	5	50%	0	1	0	0
FR	0	0	0	0	299.8	0
EN
